%nprocshared=8
%mem=10GB
%chk=biphenyl.chk
#p nmr=giao rb3lyp/6-31+g(d)

biphenyl_NICS // created by py.Aroma

0 1
H      1.909000      -0.935000      0.916000
C      1.079000      -0.517000      1.452000
C      -1.079000      0.517000      2.835000
C      0.000000      0.000000      0.745000
C      1.079000      -0.517000      2.835000
C      0.000000      0.000000      3.531000
C      -1.079000      0.517000      1.452000
H      1.915000      -0.925000      3.367000
H      0.000000      0.000000      4.603000
H      -1.909000      0.935000      0.916000
H      -1.915000      0.925000      3.367000
C      0.000000      0.000000      -0.745000
C      0.000000      0.000000      -3.531000
C      1.079000      0.517000      -1.452000
C      -1.079000      -0.517000      -1.452000
C      -1.079000      -0.517000      -2.835000
C      1.079000      0.517000      -2.835000
H      1.909000      0.935000      -0.916000
H      -1.909000      -0.935000      -0.916000
H      -1.915000      -0.925000      -3.367000
H      1.915000      0.925000      -3.367000
H      0.000000      0.000000      -4.603000
 Bq           0.0      0.0      2.145
 Bq           0.432106      -0.901823      -2.138333
 Bq           -0.432106      0.901823      -2.138333


