%nprocshared=6
%mem=10GB
%chk=azulene.chk
#p nmr=giao b3lyp/6-31g(d)

azulene_optimized

0 1
 C                 -2.50384400   -0.00054800    0.00005000
 H                 -3.59288300   -0.00039400    0.00007100
 C                 -1.91100400    1.26609500   -0.00005700
 H                 -2.59943000    2.10831300   -0.00006300
 C                 -0.55243800    1.59462200   -0.00011000
 H                 -0.32452000    2.66062400   -0.00006600
 C                  0.55462100    0.75038400   -0.00007600
 C                  1.90154000    1.15012900    0.00013800
 H                  2.24817100    2.17685000    0.00027200
 C                  2.70821800   -0.00012800    0.00010900
 H                  3.79324200    0.00020000    0.00016100
 C                  1.90226000   -1.14966700   -0.00039400
 C                  0.55458700   -0.75003900    0.00007400
 C                 -1.91093800   -1.26631500    0.00013700
 H                 -2.59850400   -2.10924400    0.00015500
 C                 -0.55151700   -1.59442500    0.00014700
 H                 -0.32354900   -2.66038800    0.00006400
 H                  2.24856200   -2.17660400   -0.00069900

